"""
 Reaction kinetics developed based on the complete carbon chemistry of GRI Mech 3.0 [1]
 and some important ammonia oxidation and NO production and reduction chemistry of the mechanism by Tian et al.[2]

"""

units(length='cm', time='s', quantity='mol', act_energy='cal/mol')

ideal_gas(name='gas',
          elements="O H C N Ar",
          species="""H2      H       O       O2      OH      H2O     HO2
                     H2O2    C       CH      CH2     CH2(S)  CH3     CH4
                     CO      CO2     HCO     CH2O    CH2OH   CH3O    CH3OH
                     C2H     C2H2    C2H3    C2H4    C2H5    C2H6    HCCO
                     CH2CO   HCCOH   N       NH      NH2     NH3     NNH
                     NO      NO2     N2O     HNO     CN      HCN     H2CN
                     HCNN    HCNO    HOCN    HNCO    NCO     N2      AR
                     C3H7    C3H8    CH2CHO  CH3CHO  H2NO    N2H2    HONO
                     N2H3    N2H4    NH2OH""",
          reactions='all',
          transport='Mix',
          initial_state=state(temperature=300.0, pressure=OneAtm))

#-------------------------------------------------------------------------------
# Species data
#-------------------------------------------------------------------------------

species(name='H2',
        atoms='H:2',
        thermo=(NASA([200.00, 1000.00],
                     [ 2.34430290E+00,  7.98042480E-03, -1.94779170E-05,
                       2.01569670E-08, -7.37602890E-12, -9.17924130E+02,
                       6.83002180E-01]),
                NASA([1000.00, 6000.00],
                     [ 2.93283050E+00,  8.26598020E-04, -1.46400570E-07,
                       1.54098510E-11, -6.88796150E-16, -8.13055820E+02,
                      -1.02431640E+00])),
        transport=gas_transport(geom='linear',
                                diam=2.92,
                                well_depth=38.0,
                                polar=0.79,
                                rot_relax=280.0),
        note='REFELEMENTRUS78')

species(name='H',
        atoms='H:1',
        thermo=(NASA([200.00, 1000.00],
                     [ 2.50000000E+00,  0.00000000E+00,  0.00000000E+00,
                       0.00000000E+00,  0.00000000E+00,  2.54736600E+04,
                      -4.46682850E-01]),
                NASA([1000.00, 6000.00],
                     [ 2.50000000E+00,  0.00000000E+00,  0.00000000E+00,
                       0.00000000E+00,  0.00000000E+00,  2.54736600E+04,
                      -4.46682850E-01])),
        transport=gas_transport(geom='atom',
                                diam=2.05,
                                well_depth=145.0),
        note='L6/94')

species(name='O',
        atoms='O:1',
        thermo=(NASA([200.00, 1000.00],
                     [ 3.16826710E+00, -3.27931884E-03,  6.64306396E-06,
                      -6.12806624E-09,  2.11265971E-12,  2.91222592E+04,
                       2.05193346E+00]),
                NASA([1000.00, 6000.00],
                     [ 2.54363697E+00, -2.73162486E-05, -4.19029520E-09,
                       4.95481845E-12, -4.79553694E-16,  2.92260120E+04,
                       4.92229457E+00])),
        transport=gas_transport(geom='atom',
                                diam=2.75,
                                well_depth=80.0),
        note='L1/90')

species(name='O2',
        atoms='O:2',
        thermo=(NASA([200.00, 1000.00],
                     [ 3.78245636E+00, -2.99673415E-03,  9.84730200E-06,
                      -9.68129508E-09,  3.24372836E-12, -1.06394356E+03,
                       3.65767573E+00]),
                NASA([1000.00, 6000.00],
                     [ 3.66096083E+00,  6.56365523E-04, -1.41149485E-07,
                       2.05797658E-11, -1.29913248E-15, -1.21597725E+03,
                       3.41536184E+00])),
        transport=gas_transport(geom='linear',
                                diam=3.458,
                                well_depth=107.4,
                                polar=1.6,
                                rot_relax=3.8),
        note='REFELEMENTRUS89')

species(name='OH',
        atoms='H:1 O:1',
        thermo=(NASA([200.00, 1000.00],
                     [ 3.99198424E+00, -2.40106655E-03,  4.61664033E-06,
                      -3.87916306E-09,  1.36319502E-12,  3.37165248E+03,
                      -1.03814059E-01]),
                NASA([1000.00, 6000.00],
                     [ 2.83853033E+00,  1.10741289E-03, -2.94000209E-07,
                       4.20698729E-11, -2.42289890E-15,  3.70056220E+03,
                       5.84513094E+00])),
        transport=gas_transport(geom='linear',
                                diam=2.75,
                                well_depth=80.0),
        note='HYDROXYLRADIIU3/03')

species(name='H2O',
        atoms='H:2 O:1',
        thermo=(NASA([200.00, 1000.00],
                     [ 4.19863520E+00, -2.03640170E-03,  6.52034160E-06,
                      -5.48792690E-09,  1.77196800E-12, -3.02937260E+04,
                      -8.49009010E-01]),
                NASA([1000.00, 6000.00],
                     [ 2.67703890E+00,  2.97318160E-03, -7.73768890E-07,
                       9.44335140E-11, -4.26899910E-15, -2.98858940E+04,
                       6.88255000E+00])),
        transport=gas_transport(geom='nonlinear',
                                diam=2.605,
                                well_depth=572.4,
                                dipole=1.844,
                                rot_relax=4.0),
        note='L5/89')

species(name='HO2',
        atoms='H:1 O:2',
        thermo=(NASA([200.00, 1000.00],
                     [ 4.30178800E+00, -4.74902010E-03,  2.11579530E-05,
                      -2.42759610E-08,  9.29206700E-12,  2.63190983E+02,
                       3.71587740E+00]),
                NASA([1000.00, 6000.00],
                     [ 4.17226590E+00,  1.88120980E-03, -3.46292970E-07,
                       1.94685160E-11,  1.76091530E-16,  3.02010736E+01,
                       2.95697380E+00])),
        transport=gas_transport(geom='nonlinear',
                                diam=3.458,
                                well_depth=107.4,
                                rot_relax=1.0),
        note='L5/89')

species(name='H2O2',
        atoms='H:2 O:2',
        thermo=(NASA([200.00, 1000.00],
                     [ 4.31515149E+00, -8.47390622E-04,  1.76404323E-05,
                      -2.26762944E-08,  9.08950158E-12, -1.76843601E+04,
                       3.27373216E+00]),
                NASA([1000.00, 6000.00],
                     [ 4.57977305E+00,  4.05326003E-03, -1.29844730E-06,
                       1.98211400E-10, -1.13968792E-14, -1.79847939E+04,
                       6.64969660E-01])),
        transport=gas_transport(geom='nonlinear',
                                diam=3.458,
                                well_depth=107.4,
                                rot_relax=3.8),
        note='T8/03')

species(name='C',
        atoms='C:1',
        thermo=(NASA([200.00, 1000.00],
                     [ 2.55423955E+00, -3.21537724E-04,  7.33792245E-07,
                      -7.32234889E-10,  2.66521446E-13,  8.54438832E+04,
                       4.53130848E+00]),
                NASA([1000.00, 3500.00],
                     [ 2.49266888E+00,  4.79889284E-05, -7.24335020E-08,
                       3.74291029E-11, -4.87277893E-15,  8.54512953E+04,
                       4.80150373E+00])),
        transport=gas_transport(geom='atom',
                                diam=3.298,
                                well_depth=71.4),
        note='L11/88')

species(name='CH',
        atoms='C:1 H:1',
        thermo=(NASA([200.00, 1000.00],
                     [ 3.48975830E+00,  3.24321600E-04, -1.68997510E-06,
                       3.16284200E-09, -1.40618030E-12,  7.06607550E+04,
                       2.08428410E+00]),
                NASA([1000.00, 6000.00],
                     [ 2.52093690E+00,  1.76536390E-03, -4.61476600E-07,
                       5.92896750E-11, -3.34745010E-15,  7.09948780E+04,
                       7.40518290E+00])),
        transport=gas_transport(geom='linear',
                                diam=2.75,
                                well_depth=80.0),
        note='IU3/03')

species(name='CH2',
        atoms='C:1 H:2',
        thermo=(NASA([200.00, 1000.00],
                     [ 3.71757846E+00,  1.27391260E-03,  2.17347251E-06,
                      -3.48858500E-09,  1.65208866E-12,  4.58723866E+04,
                       1.75297945E+00]),
                NASA([1000.00, 6000.00],
                     [ 3.14631886E+00,  3.03671259E-03, -9.96474439E-07,
                       1.50483580E-10, -8.57335515E-15,  4.60412605E+04,
                       4.72341711E+00])),
        transport=gas_transport(geom='linear',
                                diam=3.8,
                                well_depth=144.0),
        note='TRIPLETIU3/03')

species(name='CH2(S)',
        atoms='C:1 H:2',
        thermo=(NASA([200.00, 1000.00],
                     [ 4.19331325E+00, -2.33105184E-03,  8.15676451E-06,
                      -6.62985981E-09,  1.93233199E-12,  5.03662246E+04,
                      -7.46734310E-01]),
                NASA([1000.00, 6000.00],
                     [ 3.13501686E+00,  2.89593926E-03, -8.16668090E-07,
                       1.13572697E-10, -6.36262835E-15,  5.05040504E+04,
                       4.06030621E+00])),
        transport=gas_transport(geom='linear',
                                diam=3.8,
                                well_depth=144.0),
        note='SINGLETIU3/03')

species(name='CH3',
        atoms='C:1 H:3',
        thermo=(NASA([200.00, 1000.00],
                     [ 3.65717970E+00,  2.12659790E-03,  5.45838830E-06,
                      -6.61810030E-09,  2.46570740E-12,  1.63985652E+04,
                       1.67352830E+00]),
                NASA([1000.00, 6000.00],
                     [ 2.97812060E+00,  5.79785200E-03, -1.97558000E-06,
                       3.07297900E-10, -1.79174160E-14,  1.64853622E+04,
                       4.72247280E+00])),
        transport=gas_transport(geom='linear',
                                diam=3.8,
                                well_depth=144.0),
        note='IU0702')

species(name='CH4',
        atoms='C:1 H:4',
        thermo=(NASA([200.00, 1000.00],
                     [ 5.14825732E+00, -1.37002410E-02,  4.93749414E-05,
                      -4.91952339E-08,  1.70097299E-11, -1.02453222E+04,
                      -4.63322726E+00]),
                NASA([1000.00, 6000.00],
                     [ 1.91178600E+00,  9.60267960E-03, -3.38387841E-06,
                       5.38797240E-10, -3.19306807E-14, -1.00992136E+04,
                       8.48241861E+00])),
        transport=gas_transport(geom='nonlinear',
                                diam=3.746,
                                well_depth=141.4,
                                polar=2.6,
                                rot_relax=13.0),
        note='RRHOg8/99')

species(name='CO',
        atoms='C:1 O:1',
        thermo=(NASA([200.00, 1000.00],
                     [ 3.57953350E+00, -6.10353690E-04,  1.01681430E-06,
                       9.07005860E-10, -9.04424490E-13, -1.43440860E+04,
                       3.50840930E+00]),
                NASA([1000.00, 6000.00],
                     [ 3.04848590E+00,  1.35172810E-03, -4.85794050E-07,
                       7.88536440E-11, -4.69807460E-15, -1.42661170E+04,
                       6.01709770E+00])),
        transport=gas_transport(geom='linear',
                                diam=3.65,
                                well_depth=98.1,
                                polar=1.95,
                                rot_relax=1.8),
        note='RUS79')

species(name='CO2',
        atoms='C:1 O:2',
        thermo=(NASA([200.00, 1000.00],
                     [ 2.35681300E+00,  8.98412990E-03, -7.12206320E-06,
                       2.45730080E-09, -1.42885480E-13, -4.83719710E+04,
                       9.90090350E+00]),
                NASA([1000.00, 6000.00],
                     [ 4.63651110E+00,  2.74145690E-03, -9.95897590E-07,
                       1.60386660E-10, -9.16198570E-15, -4.90249040E+04,
                      -1.93489550E+00])),
        transport=gas_transport(geom='linear',
                                diam=3.763,
                                well_depth=244.0,
                                polar=2.65,
                                rot_relax=2.1),
        note='L7/88')

species(name='HCO',
        atoms='C:1 H:1 O:1',
        thermo=(NASA([200.00, 1000.00],
                     [ 4.23754610E+00, -3.32075257E-03,  1.40030264E-05,
                      -1.34239995E-08,  4.37416208E-12,  3.86906718E+03,
                       3.30835309E+00]),
                NASA([1000.00, 6000.00],
                     [ 3.92001542E+00,  2.52279324E-03, -6.71004164E-07,
                       1.05615948E-10, -7.43798261E-15,  3.65008461E+03,
                       3.58077496E+00])),
        transport=gas_transport(geom='nonlinear',
                                diam=3.59,
                                well_depth=498.0),
        note='T5/03')

species(name='CH2O',
        atoms='C:1 H:2 O:1',
        thermo=(NASA([200.00, 1000.00],
                     [ 4.79370360E+00, -9.90815180E-03,  3.73214590E-05,
                      -3.79279020E-08,  1.31770150E-11, -1.43089550E+04,
                       6.02887020E-01]),
                NASA([1000.00, 6000.00],
                     [ 3.16948070E+00,  6.19327420E-03, -2.25059810E-06,
                       3.65982450E-10, -2.20154100E-14, -1.44784250E+04,
                       6.04235330E+00])),
        transport=gas_transport(geom='nonlinear',
                                diam=3.59,
                                well_depth=498.0,
                                rot_relax=2.0),
        note='L8/88')

species(name='CH2OH',
        atoms='C:1 H:3 O:1',
        thermo=(NASA([200.00, 1000.00],
                     [ 4.47832317E+00, -1.35069687E-03,  2.78483707E-05,
                      -3.64867397E-08,  1.47906775E-11, -3.52476728E+03,
                       3.30911984E+00]),
                NASA([1000.00, 6000.00],
                     [ 5.09312037E+00,  5.94758550E-03, -2.06496524E-06,
                       3.23006703E-10, -1.88125052E-14, -4.05813228E+03,
                      -1.84690613E+00])),
        transport=gas_transport(geom='nonlinear',
                                diam=3.69,
                                well_depth=417.0,
                                dipole=1.7,
                                rot_relax=2.0),
        note='RADICALIU2/03')

species(name='CH3O',
        atoms='C:1 H:3 O:1',
        thermo=(NASA([200.00, 1000.00],
                     [ 3.71180502E+00, -2.80463306E-03,  3.76550971E-05,
                      -4.73072089E-08,  1.86588420E-11,  1.20495837E+03,
                       6.57241548E+00]),
                NASA([1000.00, 6000.00],
                     [ 4.75779238E+00,  7.44142474E-03, -2.69705176E-06,
                       4.38090504E-10, -2.63537098E-14,  2.87372692E+02,
                      -1.96679344E+00])),
        transport=gas_transport(geom='nonlinear',
                                diam=3.69,
                                well_depth=417.0,
                                dipole=1.7,
                                rot_relax=2.0),
        note='METHOXYRADIU1/03')

species(name='CH3OH',
        atoms='C:1 H:4 O:1',
        thermo=(NASA([200.00, 1000.00],
                     [ 5.65851051E+00, -1.62983419E-02,  6.91938156E-05,
                      -7.58372926E-08,  2.80427550E-11, -2.56119736E+04,
                      -8.97330508E-01]),
                NASA([1000.00, 6000.00],
                     [ 3.52726795E+00,  1.03178783E-02, -3.62892944E-06,
                       5.77448016E-10, -3.42182632E-14, -2.60028834E+04,
                       5.16758693E+00])),
        transport=gas_transport(geom='nonlinear',
                                diam=3.626,
                                well_depth=481.8,
                                rot_relax=1.0),
        note='BUR0302T06/02')

species(name='C2H',
        atoms='C:2 H:1',
        thermo=(NASA([200.00, 1000.00],
                     [ 2.90180321E+00,  1.32859725E-02, -2.80508233E-05,
                       2.89300812E-08, -1.07446930E-11,  6.71171170E+04,
                       6.17234595E+00]),
                NASA([1000.00, 6000.00],
                     [ 3.66459586E+00,  3.82189487E-03, -1.36509398E-06,
                       2.13253692E-10, -1.23098939E-14,  6.72238503E+04,
                       3.91355399E+00])),
        transport=gas_transport(geom='linear',
                                diam=4.1,
                                well_depth=209.0,
                                rot_relax=2.5),
        note='ETHYNYLRADT07/00')

species(name='C2H2',
        atoms='C:2 H:2',
        thermo=(NASA([200.00, 1000.00],
                     [ 8.08679682E-01,  2.33615762E-02, -3.55172234E-05,
                       2.80152958E-08, -8.50075165E-12,  2.64212948E+04,
                       1.39396761E+01]),
                NASA([1000.00, 6000.00],
                     [ 4.65878489E+00,  4.88396667E-03, -1.60828888E-06,
                       2.46974544E-10, -1.38605959E-14,  2.57517182E+04,
                      -3.99838194E+00])),
        transport=gas_transport(geom='linear',
                                diam=4.1,
                                well_depth=209.0,
                                rot_relax=2.5),
        note='BURCATg1/91')

species(name='C2H3',
        atoms='C:2 H:3',
        thermo=(NASA([200.00, 1000.00],
                     [ 3.36377642E+00,  2.65765722E-04,  2.79620704E-05,
                      -3.72986942E-08,  1.51590176E-11,  3.44749589E+04,
                       7.91510092E+00]),
                NASA([1000.00, 6000.00],
                     [ 4.15026763E+00,  7.54021341E-03, -2.62997847E-06,
                       4.15974048E-10, -2.45407509E-14,  3.38566380E+04,
                       1.72812235E+00])),
        transport=gas_transport(geom='nonlinear',
                                diam=4.1,
                                well_depth=209.0,
                                rot_relax=1.0),
        note='VinylRadiATcT/A')

species(name='C2H4',
        atoms='C:2 H:4',
        thermo=(NASA([200.00, 1000.00],
                     [ 3.95920063E+00, -7.57051373E-03,  5.70989993E-05,
                      -6.91588352E-08,  2.69884190E-11,  5.08977598E+03,
                       4.09730213E+00]),
                NASA([1000.00, 6000.00],
                     [ 3.99182724E+00,  1.04833908E-02, -3.71721342E-06,
                       5.94628366E-10, -3.53630386E-14,  4.26865851E+03,
                      -2.69081762E-01])),
        transport=gas_transport(geom='nonlinear',
                                diam=3.971,
                                well_depth=280.8,
                                rot_relax=1.5),
        note='g1/00')

species(name='C2H5',
        atoms='C:2 H:5',
        thermo=(NASA([200.00, 1000.00],
                     [ 4.30642051E+00, -4.18635208E-03,  4.97137768E-05,
                      -5.99121792E-08,  2.30507301E-11,  1.28416330E+04,
                       4.70738797E+00]),
                NASA([1000.00, 6000.00],
                     [ 4.28800015E+00,  1.24337439E-02, -4.41384130E-06,
                       7.06527536E-10, -4.20342270E-14,  1.20564209E+04,
                       8.45299829E-01])),
        transport=gas_transport(geom='nonlinear',
                                diam=4.302,
                                well_depth=252.3,
                                rot_relax=1.5),
        note='g7/00')

species(name='C2H6',
        atoms='C:2 H:6',
        thermo=(NASA([200.00, 1000.00],
                     [ 4.29142572E+00, -5.50154901E-03,  5.99438458E-05,
                      -7.08466469E-08,  2.68685836E-11, -1.15222056E+04,
                       2.66678994E+00]),
                NASA([1000.00, 6000.00],
                     [ 4.04666411E+00,  1.53538802E-02, -5.47039485E-06,
                       8.77826544E-10, -5.23167531E-14, -1.24473499E+04,
                      -9.68698313E-01])),
        transport=gas_transport(geom='nonlinear',
                                diam=4.302,
                                well_depth=252.3,
                                rot_relax=1.5),
        note='g8/88')

species(name='HCCO',
        atoms='C:2 H:1 O:1',
        thermo=(NASA([200.00, 1000.00],
                     [ 2.33501180E+00,  1.70100830E-02, -2.20188670E-05,
                       1.54064470E-08, -4.34550970E-12,  2.01462222E+04,
                       1.19767290E+01]),
                NASA([1000.00, 6000.00],
                     [ 5.84690060E+00,  3.64059600E-03, -1.29590070E-06,
                       2.07969190E-10, -1.24000220E-14,  1.93444192E+04,
                      -5.29165330E+00])),
        transport=gas_transport(geom='nonlinear',
                                diam=2.5,
                                well_depth=150.0,
                                rot_relax=1.0),
        note='T6/94')

species(name='CH2CO',
        atoms='C:2 H:2 O:1',
        thermo=(NASA([200.00, 1000.00],
                     [ 2.14011650E+00,  1.80883680E-02, -1.73242160E-05,
                       9.27674770E-09, -1.99150110E-12, -7.04305090E+03,
                       1.21986990E+01]),
                NASA([1000.00, 6000.00],
                     [ 5.75779010E+00,  6.34965070E-03, -2.25844070E-06,
                       3.62084620E-10, -2.15690300E-14, -7.97861130E+03,
                      -6.10640370E+00])),
        transport=gas_transport(geom='nonlinear',
                                diam=3.97,
                                well_depth=436.0,
                                rot_relax=2.0),
        note='T6/94')

species(name='HCCOH',
        atoms='C:2 H:2 O:1',
        thermo=(NASA([200.00, 1000.00],
                     [ 1.96541730E+00,  2.55852050E-02, -3.87733340E-05,
                       3.15663350E-08, -1.00816700E-11,  9.76940900E+03,
                       1.26027490E+01]),
                NASA([1000.00, 6000.00],
                     [ 6.36602550E+00,  5.50387290E-03, -1.88519010E-06,
                       2.94464140E-10, -1.72185980E-14,  8.91849650E+03,
                      -8.25047050E+00])),
        transport=gas_transport(geom='nonlinear',
                                diam=3.97,
                                well_depth=436.0,
                                rot_relax=2.0),
        note='BUR0302T4/93')

species(name='N',
        atoms='N:1',
        thermo=(NASA([300.00, 1000.00],
                     [ 2.50307100E+00, -2.18001800E-05,  5.42052900E-08,
                      -5.64756000E-11,  2.09990400E-14,  5.60989000E+04,
                       4.16756600E+00]),
                NASA([1000.00, 5000.00],
                     [ 2.45026800E+00,  1.06614600E-04, -7.46533700E-08,
                       1.87965200E-11, -1.02598400E-15,  5.61160400E+04,
                       4.44875800E+00])),
        transport=gas_transport(geom='atom',
                                diam=3.298,
                                well_depth=71.4),
        note='120186')

species(name='NH',
        atoms='H:1 N:1',
        thermo=(NASA([200.00, 1000.00],
                     [ 3.49290840E+00,  3.11791970E-04, -1.48904840E-06,
                       2.48164420E-09, -1.03569670E-12,  4.18942940E+04,
                       1.84832770E+00]),
                NASA([1000.00, 6000.00],
                     [ 2.78369290E+00,  1.32984290E-03, -4.24780470E-07,
                       7.83485040E-11, -5.50444700E-15,  4.21345140E+04,
                       5.74077980E+00])),
        transport=gas_transport(geom='linear',
                                diam=2.65,
                                well_depth=80.0,
                                rot_relax=4.0))

species(name='NH2',
        atoms='H:2 N:1',
        thermo=(NASA([300.00, 1000.00],
                     [ 3.43249300E+00,  3.29954000E-03, -6.61360000E-06,
                       8.59094700E-09, -3.57204700E-12,  2.17722800E+04,
                       3.09011100E+00]),
                NASA([1000.00, 5000.00],
                     [ 2.96131100E+00,  2.93269900E-03, -9.06360000E-07,
                       1.61725700E-10, -1.20420000E-14,  2.19197700E+04,
                       5.77787800E+00])),
        transport=gas_transport(geom='nonlinear',
                                diam=2.65,
                                well_depth=80.0,
                                polar=2.26,
                                rot_relax=4.0),
        note='121686')

species(name='NH3',
        atoms='H:3 N:1',
        thermo=(NASA([300.00, 1000.00],
                     [ 2.20435200E+00,  1.01147600E-02, -1.46526500E-05,
                       1.44723500E-08, -5.32850900E-12, -6.52548800E+03,
                       8.12713800E+00]),
                NASA([1000.00, 5000.00],
                     [ 2.46190400E+00,  6.05916600E-03, -2.00497700E-06,
                       3.13600300E-10, -1.93831700E-14, -6.49327000E+03,
                       7.47209700E+00])),
        transport=gas_transport(geom='nonlinear',
                                diam=2.92,
                                well_depth=481.0,
                                dipole=1.47,
                                rot_relax=10.0),
        note='121386')

species(name='NNH',
        atoms='H:1 N:2',
        thermo=(NASA([250.00, 1000.00],
                     [ 3.50134400E+00,  2.05358700E-03,  7.17041000E-07,
                       4.92134800E-10, -9.67117000E-13,  2.83334700E+04,
                       6.39183700E+00]),
                NASA([1000.00, 4000.00],
                     [ 4.41534200E+00,  1.61438800E-03, -1.63289400E-07,
                      -8.55984600E-11,  1.61479100E-14,  2.78802900E+04,
                       9.04288800E-01])),
        transport=gas_transport(geom='nonlinear',
                                diam=3.798,
                                well_depth=71.4,
                                rot_relax=1.0),
        note='120186')

species(name='NO',
        atoms='N:1 O:1',
        thermo=(NASA([200.00, 1000.00],
                     [ 4.21859896E+00, -4.63988124E-03,  1.10443049E-05,
                      -9.34055507E-09,  2.80554874E-12,  9.81823786E+03,
                       2.28060952E+00]),
                NASA([1000.00, 6000.00],
                     [ 3.26071234E+00,  1.19101135E-03, -4.29122646E-07,
                       6.94481463E-11, -4.03295681E-15,  9.89456954E+03,
                       6.36900469E+00])),
        transport=gas_transport(geom='linear',
                                diam=3.339,
                                well_depth=139.32,
                                dipole=0.2,
                                polar=1.76,
                                rot_relax=4.0),
        note='RUS89')

species(name='NO2',
        atoms='N:1 O:2',
        thermo=(NASA([200.00, 1000.00],
                     [ 3.94403120E+00, -1.58542900E-03,  1.66578120E-05,
                      -2.04754260E-08,  7.83505640E-12,  2.87409757E+03,
                       6.31199190E+00]),
                NASA([1000.00, 6000.00],
                     [ 4.88475400E+00,  2.17239550E-03, -8.28069090E-07,
                       1.57475100E-10, -1.05108950E-14,  2.29397777E+03,
                      -1.17416951E-01])),
        transport=gas_transport(geom='nonlinear',
                                diam=3.852,
                                well_depth=333.59,
                                dipole=0.4,
                                rot_relax=1.0),
        note='L7/88')

species(name='N2O',
        atoms='N:2 O:1',
        thermo=(NASA([300.00, 1000.00],
                     [ 2.54305800E+00,  9.49219300E-03, -9.79277500E-06,
                       6.26384500E-09, -1.90182600E-12,  8.76510000E+03,
                       9.51122200E+00]),
                NASA([1000.00, 5000.00],
                     [ 4.71897700E+00,  2.87371400E-03, -1.19749600E-06,
                       2.25055200E-10, -1.57533700E-14,  8.16581100E+03,
                      -1.65725000E+00])),
        transport=gas_transport(geom='linear',
                                diam=3.828,
                                well_depth=232.4,
                                rot_relax=1.0),
        note='121286')

species(name='HNO',
        atoms='H:1 N:1 O:1',
        thermo=(NASA([200.00, 1000.00],
                     [ 4.53525574E+00, -5.68543377E-03,  1.85198540E-05,
                      -1.71881225E-08,  5.55818157E-12,  1.16110981E+04,
                       1.74318356E+00]),
                NASA([1000.00, 6000.00],
                     [ 3.16598124E+00,  2.99958892E-03, -3.94376786E-07,
                      -3.85344089E-11,  7.07602668E-15,  1.17654289E+04,
                       7.64513642E+00])),
        transport=gas_transport(geom='nonlinear',
                                diam=3.43,
                                well_depth=170.0,
                                dipole=1.62,
                                rot_relax=1.0),
        note='ATcT/A')

species(name='CN',
        atoms='C:1 N:1',
        thermo=(NASA([200.00, 1000.00],
                     [ 3.61256066E+00, -9.53015376E-04,  2.13757148E-06,
                      -3.05000108E-10, -4.70518899E-13,  5.15179601E+04,
                       3.98240466E+00]),
                NASA([1000.00, 6000.00],
                     [ 3.39912871E+00,  7.46548271E-04, -1.41493637E-07,
                       1.86747261E-11, -1.26032174E-15,  5.14665281E+04,
                       4.67150296E+00])),
        transport=gas_transport(geom='linear',
                                diam=3.856,